Resultados_Ferramenta_Computacional_ds_ons_122023_rv0d29/ds_ons_122023_rv0d29_Estagio38.m
function mpc = ds_ons_122023_rv0d29_Estagio38
% CASO SIN: extraido dos arquivos de dados do DESSEM
%
% CASO SIN: Fluxo de Potencia do SIN extraido de arquivo de dados do DESSEM
% Autores Francisco Povoas e Murilo Reolon
%
%   MATPOWER
%
%% MATPOWER Case Format : Version 2
mpc.version = '2';
%
%%-----  Power Flow Data  -----%%

%% system MVA base
mpc.baseMVA = 100;

%% bus data
%	bus_i   type    Pd      Qd      Gs      Bs      area    Vm      Va      baseKV  zone    Vmax    Vmin
mpc.bus = [
   10      2       32.0    15.5    0       0       221     0.976   27.3    992     0       1.05    0.95;
   11      2       0       0       0       0       221     0.98    35      992     0       1.05    0.95;
   12      2       0       0       0       0       204     0.967   40.7    992     0       1.05    0.95;
   13      2       0       0       0       0       204     1.004   35.6    990     0       1.05    0.95;
   14      2       0       0       0       0       225     0.963   29.2    992     0       1.05    0.95;
   16      2       0       0       0       0       189     1.017   34.8    992     0       1.05    0.95;
   17      2       0       0       0       0       189     0.999   28.4    990     0       1.05    0.95;
   18      2       0       0       0       0       188     0.964   44.1    992     0       1.05    0.95;
   19      2       0       0       0       0       188     0.997   35.8    990     0       1.05    0.95;
   20      2       0       0       0       0       188     1.025   45.5    992     0       1.05    0.95;
   21      2       0       0       0       0       137     0.962   33.8    992     0       1.05    0.95;
   22      2       0       0       0       0       189     0.994   41.5    992     0       1.05    0.95;
   23      2       0       0       0       0       149     0.986   23      990     0       1.05    0.95;
   24      2       0       0       0       0       208     0.975   41.4    992     0       1.05    0.95;
   27      1       0       0       0       0       202     1.078   27.7    500     0       1.1     1;
   28      2       0       0       0       0       208     0.978   57.2    992     0       1.05    0.95;
   30      2       0       0       0       0       224     0.999   16.6    992     0       1.05    0.95;
   31      2       0       0       0       0       224     0.999   16.6    992     0       1.05    0.95;
   32      2       0       0       0       0       224     0.999   16.6    992     0       1.05    0.95;
   35      2       0       0       0       0       148     0.965   37.6    992     0       1.05    0.95;
   36      2       0       0       0       0       147     0.951   14.8    992     0       1.05    0.95;
   37      2       0       0       0       0       147     0.988   9.88    990     0       1.05    0.95;
   38      2       0       0       0       0       221     1.007   17.5    13.8    0       1.05    0.95;
   41      2       0       0       0       0       234     1.002   -5      990     0       1.05    0.95;
   44      2       0       0       0       0       221     1.007   17.5    13.8    0       1.05    0.95;
   46      1       0       0       0       0       222     1.042   2.69    15      0       1.9     0.4;
   47      2       0       0       0       0       234     1.002   -5      990     0       1.05    0.95;
   48      2       0       0       0       0       204     0.987   22.9    20      0       1.05    0.95;
   50      2       0       0       0       0       201     0.981   20.2    20      0       1.05    0.95;
   52      1       0       0       0       0       222     1.02    2.69    345     0       1.05    0.95;
   53      2       0       0       0       0       222     0.973   2.69    20      0       1.05    0.95;
   54      2       0       0       0       0       222     0.973   2.69    20      0       1.05    0.95;
   56      1       0       0       0       0       201     0.914   42.7    69      0       1.9     0.4;
   57      1       0       0       0       0       201     0.911   42.8    69      0       1.9     0.4;
   58      1       0       0       0       0       201     1.03    42.8    991     0       1.9     0.4;
   59      1       0       0       0       0       201     1.025   42.7    991     0       1.9     0.4;
   60      1       0       0       0       0       201     1.004   51.2    765     0       1.046   0.9;
   61      1       0       0       0       0       240     1.048   54.3    500     0       1.1     1;
   62      1       0       0       0       0       201     1.04    35.8    765     0       1.046   0.9;
   63      1       0       0       0       0       201     1.04    35.8    765     0       1.046   0.9;
   64      1       0       0       0       0       201     1.038   36.1    765     0       1.046   0.9;
   65      1       0       0       0       0       201     1.038   41.9    765     0       1.046   0.9;
   66      1       0       0       0       0       101     1.021   42.6    525     0       1.048   0.95;
   67      1       0.24    0.0     0       0       201     0.922   42.8    69      0       1.9     0.4;
   68      1       0       0       0       0       201     1.043   42.8    991     0       1.9     0.4;
   69      1       0       0       0       0       201     1.033   49.1    765     0       1.046   0.9;
   70      1       0       0       0       0       201     1.034   49.1    765     0       1.046   0.9;
   71      1       0       0       0       0       201     1.033   49.1    765     0       1.046   0.9;
   72      1       0       0       0       0       201     1.037   34.9    765     0       1.046   0.9;
   73      1       0       0       0       0       201     1.008   43.5    765     0       1.046   0.9;
   74      1       0       0       0       0       201     1.008   43.5    765     0       1.046   0.9;
   75      1       0       0       0       0       201     1.005   43.1    765     0       1.046   0.9;
   76      1       0       0       0       0       201     0.995   27      765     0       1.046   0.9;
   77      1       0       0       0       0       202     1.047   26.7    500     0       1.1     1;
   78      1       0       0       0       0       204     1.013   20.9    345     0       1.05    0.95;
   79      1       0       0       0       0       201     0.95    26.7    69      0       1.9     0.4;
   80      1       0       0       0       0       201     1.011   26.7    991     0       1.9     0.4;
   81      1       0       0       0       0       201     0.979   20.2    991     0       1.9     0.4;
   82      1       0       0       0       0       204     1.008   21.1    345     0       1.05    0.95;
   84      1       0       0       0       0       225     1.007   24.5    138     0       1.05    0.95;
   85      1       60.0    0.0     0       0       241     1.101   -0.09   500     0       1.1     1;
   86      2       0       0       0       0       204     1.03    22.9    345     0       1.05    0.95;
   87      1       0       0       0       0       221     1.077   26.5    500     0       1.1     1;
   90      1       0       0       0       0       234     0.996   -4.2    345     0       1.05    0.95;
   91      1       0       0       0       0       234     0.987   -6.4    13.8    0       1.9     0.4;
   92      1       0       0       0       0       147     0.951   17      500     0       1.1     1;
   93      1       0       0       0       0       147     0.966   16.2    500     0       1.1     1;
   94      1       0       0       0       0       147     0.966   16.5    500     0       1.1     1;
   95      1       0       0       0       0       234     0.987   -6.4    13.8    0       1.9     0.4;
   96      1       0       0       0       0       234     0.987   -6.4    13.8    0       1.9     0.4;
   99      1       0       0       0       0       202     1.079   38.5    500     0       1.1     1;
   100     1       0       0       0       0       188     1.063   38.9    500     0       1.1     1;
   101     1       0       0       0       0       202     1.08    36.4    500     0       1.1     1;
   102     1       0       0       0       0       188     1.075   30.4    500     0       1.1     1;
   103     1       0       0       0       0       202     1.07    28.3    500     0       1.1     1;
   104     1       0       0       0       0       202     1.095   25.2    500     0       1.1     1;
   105     1       0       0       0       0       221     1.059   27.6    500     0       1.1     1;
   106     1       0       0       0       0       221     1.065   22.9    500     0       1.1     1;
   107     1       0       0       0       0       221     1.064   21      500     0       1.1     1;
   108     1       0       0       0       0       221     1.057   21.8    500     0       1.1     1;
   109     1       0       0       0       0       221     1.065   22.9    500     0       1.1     1;
   110     1       0       0       0       0       221     1.015   17.5    991     0       1.9     0.4;
   112     1       0       0       0       0       101     1.099   34.3    500     0       1.1     1;
   113     1       0       0       0       0       101     1.099   34.3    500     0       1.1     1;
   114     1       0       0       0       0       101     1.099   34.3    500     0       1.1     1;
   115     1       0       0       0       0       101     1.016   40      500     0       1.1     1;
   116     1       0       0       0       0       226     1.002   11.5    138     0       1.05    0.95;
   118     1       0       0       0       0       148     0.967   19.7    991     0       1.9     0.4;
   119     1       0       0       0       0       148     0.967   19.7    13.8    0       1.9     0.4;
   120     1       0       0       0       0       189     1.002   25.1    345     0       1.05    0.95;
   121     1       0       0       0       0       188     1.013   24      991     0       1.9     0.4;
   122     1       0       0       0       0       202     1.088   27.2    500     0       1.1     1;
   123     1       0       0       0       0       204     0.986   23.8    345     0       1.05    0.95;
   124     1       0       0       0       0       202     1.019   22.8    991     0       1.9     0.4;
   125     1       0       0       0       0       202     1.081   19.6    500     0       1.1     1;
   126     1       0       0       0       0       204     1.016   16.7    345     0       1.05    0.95;
   127     1       0       0       0       0       204     1.017   19.2    345     0       1.05    0.95;
   128     1       0       0       0       0       204     1.017   19.2    345     0       1.05    0.95;
   129     1       0       0       0       0       204     1.014   18.3    345     0       1.05    0.95;
   130     1       0       0       0       0       202     1.081   19.6    500     0       1.1     1;
   131     1       0       0       0       0       189     1.007   35.1    345     0       1.05    0.95;
   133     1       0       0       0       0       222     0.994   13.8    991     0       1.9     0.4;
   134     1       0       0       0       0       204     1.001   35.6    345     0       1.05    0.95;
   135     1       0       0       0       0       222     0.986   14.9    991     0       1.9     0.4;
   136     1       0       0       0       0       189     1.012   28.4    345     0       1.05    0.95;
   137     1       0       0       0       0       222     0.986   14.9    991     0       1.9     0.4;
   138     1       0       0       0       0       189     1.008   14.8    345     0       1.05    0.95;
   139     1       0       0       0       0       221     1.006   18      991     0       1.9     0.4;
   140     1       0       0       0       0       222     1.012   17.2    345     0       1.05    0.95;
   141     1       0       0       0       0       221     1.009   15.6    991     0       1.9     0.4;
   142     1       0       0       0       0       221     1.008   16      991     0       1.9     0.4;
   143     1       0       0       0       0       222     0.995   13.7    991     0       1.9     0.4;
   144     1       0       0       0       0       222     1.001   16.7    345     0       1.05    0.95;
   145     1       0       0       0       0       222     0.994   13.7    991     0       1.9     0.4;
   146     1       0       0       0       0       222     0.994   13.7    991     0       1.9     0.4;
   147     1       0       0       0       0       222     1.018   2.69    345     0       1.05    0.95;
   148     1       0       0       0       0       222     1.012   0.97    991     0       1.9     0.4;
   149     1       0       0       0       0       234     0.993   -5      345     0       1.05    0.95;
   150     1       0       0       0       0       234     0.989   -7.6    991     0       1.9     0.4;
   152     1       0       0       0       0       234     0.989   -7.6    991     0       1.9     0.4;
   153     1       0       0       0       0       234     0.987   -7.7    991     0       1.9     0.4;
   154     1       0       0       0       0       234     1.023   -7.6    13.8    0       1.9     0.4;
   155     1       0       0       0       0       234     1.021   -7.7    13.8    0       1.9     0.4;
   156     1       0       0       0       0       234     1.017   -7.5    13.8    0       1.9     0.4;
   158     1       0       0       0       0       234     0.988   -7.5    991     0       1.9     0.4;
   159     1       0       0       0       0       222     0.958   14.9    13.8    0       1.9     0.4;
   160     1       0       0       0       0       222     0.962   14.8    13.8    0       1.9     0.4;
   161     1       0       0       0       0       205     0.999   18      230     0       1.05    0.95;
   162     1       0       0       0       0       204     0.983   22.1    991     0       1.9     0.4;
   163     1       0       0       0       0       204     0.954   22.1    13.8    0       1.9     0.4;
   164     1       0       0       0       0       189     1.057   22.4    991     0       1.9     0.4;
   165     1       0       0       0       0       189     0.992   22.4    13.8    0       1.9     0.4;
   166     1       0       0       0       0       222     0.987   14.8    991     0       1.9     0.4;
   167     1       0       0       0       0       222     0.958   14.9    13.8    0       1.9     0.4;
   169     1       0       0       0       0       224     1.015   17.1    138     0       1.05    0.95;
   170     1       0       0       0       0       196     1.038   22.8    138     0       1.05    0.95;
   171     1       0       0       0       0       207     1.021   21.9    138     0       1.05    0.95;
   172     1       0       0       0       0       226     1.005   15.2    138     0       1.05    0.95;
   173     1       0       0       0       0       226     1.022   13.8    138     0       1.05    0.95;
   174     1       0       0       0       0       228     1.007   3.91    138     0       1.05    0.95;
   175     1       0       0       0       0       229     1.029   1.06    138     0       1.05    0.95;
   176     1       0       0       0       0       202     1.016   23      991     0       1.9     0.4;
   177     1       0       0       0       0       236     1.004   -7.3    138     0       1.05    0.95;
   178     1       0       0       0       0       224     1.001   17.7    138     0       1.05    0.95;
   179     1       0       0       0       0       221     1.015   17.5    991     0       1.9     0.4;
   180     1       0       0       0       0       224     1.005   15      138     0       1.05    0.95;
   181     1       0       0       0       0       221     1.008   21.2    138     0       1.05    0.95;
   182     1       0       0       0       0       225     1.012   24.5    138     0       1.05    0.95;
   183     1       0       0       0       0       214     1.011   24.4    138     0       1.05    0.95;
   184     1       0       0       0       0       224     1.004   16.6    138     0       1.05    0.95;
   185     1       0       0       0       0       225     1.049   28      138     0       1.05    0.95;
   186     1       0       0       0       0       202     1.016   23      13.8    0       1.9     0.4;
   187     1       0       0       0       0       195     1.03    35      138     0       1.05    0.95;
   189     1       0       0       0       0       159     0.923   6.47    991     0       1.9     0.4;
   190     1       0       0       0       0       208     0.997   51      138     0       1.05    0.95;
   192     1       0       0       0       0       222     1.012   0.97    13.8    0       1.9     0.4;
   194     1       0       0       0       0       221     0.924   16      13.8    0       1.9     0.4;
   195     1       0       0       0       0       221     0.925   15.6    13.8    0       1.9     0.4;
   196     1       0       0       0       0       202     0.934   22.8    13.8    0       1.9     0.4;
   197     1       0       0       0       0       221     1.006   18      13.8    0       1.9     0.4;
   198     1       0       0       0       0       188     0.858   24      13.8    0       1.9     0.4;
   199     1       0       0       0       0       234     1.022   -7.6    13.8    0       1.9     0.4;
   200     1       0       0       0       0       229     0.997   -2.3    991     0       1.9     0.4;
   201     1       0       0       0       0       229     0.997   -2.3    992     0       1.05    0.95;
   202     1       0       0       0       0       229     0.997   -2.3    991     0       1.9     0.4;
   203     1       0       0       0       0       229     0.997   -2.3    992     0       1.05    0.95;
   204     1       0       0       0       0       222     0.994   13.7    13.8    0       1.9     0.4;
   205     1       0       0       0       0       222     0.994   13.7    13.8    0       1.9     0.4;
   206     1       0       0       0       0       222     0.995   13.7    13.8    0       1.9     0.4;
   208     1       0       0       0       0       159     0.923   6.47    13.8    0       1.9     0.4;
   209     1       0       0       0       0       222     0.994   13.8    13.8    0       1.9     0.4;
   210     1       0       0       0       0       188     1.022   35.8    500     0       1.1     1;
   211     1       0       0       0       0       222     1.012   0.945   991     0       1.9     0.4;
   212     1       0       0       0       0       222     1.012   0.945   13.8    0       1.9     0.4;
   213     1       0       0       0       0       189     1.019   38      345     0       1.05    0.95;
   214     1       0       0       0       0       188     1.022   37.8    991     0       1.9     0.4;
   216     1       0       0       0       0       189     1.015   37.1    345     0       1.05    0.95;
   217     1       0       0       0       0       189     0.974   32.9    345     0       1.05    0.95;
   218     1       0       0       0       0       148     0.953   20.6    345     0       1.05    0.95;
   219     1       0       0       0       0       158     0.931   12.7    345     0       1.05    0.95;
   220     1       0       0       0       0       148     0.968   31.2    345     0       1.05    0.95;
   221     1       0       0       0       0       160     1.011   6.73    34.5    0       1.05    0.95;
   222     1       0       0       0       0       158     0.936   11.1    991     0       1.9     0.4;
   223     1       0       0       0       0       148     0.968   19.6    991     0       1.9     0.4;
   224     1       0       0       0       0       148     0.969   19.6    991     0       1.9     0.4;
   225     1       0       0       0       0       190     1.044   32.5    230     0       1.05    0.95;
   226     1       0       0       0       0       149     0.99    19.8    230     0       1.05    0.95;
   227     1       0       0       0       0       159     0.935   11.2    230     0       1.05    0.95;
   228     1       0       0       0       0       159     0.935   11.4    230     0       1.05    0.95;
   229     1       0       0       0       0       149     0.987   0.496   230     0       1.05    0.95;
   230     1       0       0       0       0       149     1.031   12.2    230     0       1.05    0.95;
   231     1       0       0       0       0       149     1.005   30.1    230     0       1.05    0.95;
   232     1       0       0       0       0       158     0.936   11.1    13.8    0       1.9     0.4;
   233     1       0       0       0       0       157     0.974   13.3    500     0       1.1     1;
   234     1       0       0       0       0       158     1.016   13.1    345     0       1.05    0.95;
   235     1       0       0       0       0       147     0.964   9.88    500     0       1.1     1;
   236     1       0       0       0       0       160     1.019   8.52    138     0       1.05    0.95;
   237     1       0       0       0       0       160     0.985   11      138     0       1.05    0.95;
   238     1       0       0       0       0       153     1.044   27.7    138     0       1.05    0.95;
   239     1       0       0       0       0       154     1.043   10.1    138     0       1.05    0.95;
...
];
%% generator data
%	bus       Pg        Qg        Qmax      Qmin      Vg        mBase     status    Pmax      Pmin      Pc1       Pc2       Qc1min    Qc1max    Qc2min    Qc2max    ramp_agc  ramp_10   ramp_30   ramp_q    apf
mpc.gen = [
   11        1350.0    33.18     600.0     -350.0    0.98      100       1         1350.0    0.0       0.00      0.00      0.00      0.00      0.00      0.00      0.00      0.00      0.00      0.00      0.00;
   8646      0.0       13.3      30.86     -30.9     1.038     100       1         40.0      0.0       0.00      0.00      0.00      0.00      0.00      0.00      0.00      0.00      0.00      0.00      0.00;
   8646      36.28     13.3      30.86     -30.9     1.038     100       1         40.0      0.0       0.00      0.00      0.00      0.00      0.00      0.00      0.00      0.00      0.00      0.00      0.00;
   8653      0.0       17.23     74.98     -75.0     1.041     100       1         43.0      0.0       0.00      0.00      0.00      0.00      0.00      0.00      0.00      0.00      0.00      0.00      0.00;
   8653      38.72     17.23     74.98     -75.0     1.041     100       1         43.0      0.0       0.00      0.00      0.00      0.00      0.00      0.00      0.00      0.00      0.00      0.00      0.00;
   802       0.0       -11.6     0.0       0.0       0.999     100       1         235.0     0.0       0.00      0.00      0.00      0.00      0.00      0.00      0.00      0.00      0.00      0.00      0.00;
   802       0.0       -11.6     0.0       0.0       0.999     100       1         235.0     0.0       0.00      0.00      0.00      0.00      0.00      0.00      0.00      0.00      0.00      0.00      0.00;
   803       0.0       -11.6     0.0       0.0       0.999     100       1         484.15    0.0       0.00      0.00      0.00      0.00      0.00      0.00      0.00      0.00      0.00      0.00      0.00;
   9600      90.0      -38.6     96.0      -96.0     1.003     100       1         90.0      0.0       0.00      0.00      0.00      0.00      0.00      0.00      0.00      0.00      0.00      0.00      0.00;
   9603      0.0       -94.6     233.0     -233.0    0.995     100       1         155.0     0.0       0.00      0.00      0.00      0.00      0.00      0.00      0.00      0.00      0.00      0.00      0.00;
   9627      0.0       -27.5     0.0       0.0       1.01      100       1         265.0     0.0       0.00      0.00      0.00      0.00      0.00      0.00      0.00      0.00      0.00      0.00      0.00;
   9627      0.0       -27.5     0.0       0.0       1.01      100       1         265.0     0.0       0.00      0.00      0.00      0.00      0.00      0.00      0.00      0.00      0.00      0.00      0.00;
   9628      0.0       -13.5     0.0       0.0       1.01      100       1         530.0     0.0       0.00      0.00      0.00      0.00      0.00      0.00      0.00      0.00      0.00      0.00      0.00;
   5220      0.0       -0.04     0.0       0.0       0.99      100       1         42.27     0.0       0.00      0.00      0.00      0.00      0.00      0.00      0.00      0.00      0.00      0.00      0.00;
   5220      0.0       -0.04     0.0       0.0       0.99      100       1         42.27     0.0       0.00      0.00      0.00      0.00      0.00      0.00      0.00      0.00      0.00      0.00      0.00;
   5220      0.0       -0.04     0.0       0.0       0.99      100       1         42.27     0.0       0.00      0.00      0.00      0.00      0.00      0.00      0.00      0.00      0.00      0.00      0.00;
   5220      0.0       -0.04     0.0       0.0       0.99      100       1         42.27     0.0       0.00      0.00      0.00      0.00      0.00      0.00      0.00      0.00      0.00      0.00      0.00;
   1173      300.0     -35.6     160.0     -115.0    0.979     100       1         350.0     0.0       0.00      0.00      0.00      0.00      0.00      0.00      0.00      0.00      0.00      0.00      0.00;
   8611      17.08     -0.9      51.24     -16.0     1.007     100       1         17.08     0.0       0.00      0.00      0.00      0.00      0.00      0.00      0.00      0.00      0.00      0.00      0.00;
   8611      1.45      -0.9      51.24     -16.0     1.007     100       1         17.08     0.0       0.00      0.00      0.00      0.00      0.00      0.00      0.00      0.00      0.00      0.00      0.00;
   8611      17.08     -0.9      51.24     -16.0     1.007     100       1         17.08     0.0       0.00      0.00      0.00      0.00      0.00      0.00      0.00      0.00      0.00      0.00      0.00;
   8611      17.08     -0.9      51.24     -16.0     1.007     100       1         17.08     0.0       0.00      0.00      0.00      0.00      0.00      0.00      0.00      0.00      0.00      0.00      0.00;
   9100      0.0       -12.5     0.0       0.0       0.971     100       1         48.0      0.0       0.00      0.00      0.00      0.00      0.00      0.00      0.00      0.00      0.00      0.00      0.00;
   9101      0.0       -18.2     0.0       0.0       0.971     100       1         216.0     0.0       0.00      0.00      0.00      0.00      0.00      0.00      0.00      0.00      0.00      0.00      0.00;
   5654      0.0       28.99     0.0       0.0       0.985     100       1         160.0     0.0       0.00      0.00      0.00      0.00      0.00      0.00      0.00      0.00      0.00      0.00      0.00;
   5654      0.0       28.99     0.0       0.0       0.985     100       1         160.0     0.0       0.00      0.00      0.00      0.00      0.00      0.00      0.00      0.00      0.00      0.00      0.00;
   5655      0.0       15.22     0.0       0.0       0.985     100       1         327.0     0.0       0.00      0.00      0.00      0.00      0.00      0.00      0.00      0.00      0.00      0.00      0.00;
   5820      0.0       0.0       0.0       0.0       0.999     100       1         79.36     0.0       0.00      0.00      0.00      0.00      0.00      0.00      0.00      0.00      0.00      0.00      0.00;
   5820      0.0       0.0       0.0       0.0       0.999     100       1         79.36     0.0       0.00      0.00      0.00      0.00      0.00      0.00      0.00      0.00      0.00      0.00      0.00;
   5820      0.0       0.0       0.0       0.0       0.999     100       1         79.36     0.0       0.00      0.00      0.00      0.00      0.00      0.00      0.00      0.00      0.00      0.00      0.00;
   5820      0.0       0.0       0.0       0.0       0.999     100       1         69.44     0.0       0.00      0.00      0.00      0.00      0.00      0.00      0.00      0.00      0.00      0.00      0.00;
   5823      0.0       0.0       0.0       0.0       0.999     100       1         79.36     0.0       0.00      0.00      0.00      0.00      0.00      0.00      0.00      0.00      0.00      0.00      0.00;
   5823      0.0       0.0       0.0       0.0       0.999     100       1         79.36     0.0       0.00      0.00      0.00      0.00      0.00      0.00      0.00      0.00      0.00      0.00      0.00;
   5823      0.0       0.0       0.0       0.0       0.999     100       1         79.36     0.0       0.00      0.00      0.00      0.00      0.00      0.00      0.00      0.00      0.00      0.00      0.00;
   5823      0.0       0.0       0.0       0.0       0.999     100       1         69.44     0.0       0.00      0.00      0.00      0.00      0.00      0.00      0.00      0.00      0.00      0.00      0.00;
   3017      0.0       553.8     0.0       0.0       0.996     100       1         68.06     0.0       0.00      0.00      0.00      0.00      0.00      0.00      0.00      0.00      0.00      0.00      0.00;
   3017      0.0       553.8     0.0       0.0       0.996     100       1         68.06     0.0       0.00      0.00      0.00      0.00      0.00      0.00      0.00      0.00      0.00      0.00      0.00;
   1585      0.0       30.1      0.0       0.0       0.95      100       1         235.0     0.0       0.00      0.00      0.00      0.00      0.00      0.00      0.00      0.00      0.00      0.00      0.00;
   907       0.0       -0.86     0.0       0.0       0.962     100       1         40.0      0.0       0.00      0.00      0.00      0.00      0.00      0.00      0.00      0.00      0.00      0.00      0.00;
   907       0.0       -0.86     0.0       0.0       0.962     100       1         40.0      0.0       0.00      0.00      0.00      0.00      0.00      0.00      0.00      0.00      0.00      0.00      0.00;
   4100      0.0       1.48      0.0       0.0       0.952     100       1         43.11     0.0       0.00      0.00      0.00      0.00      0.00      0.00      0.00      0.00      0.00      0.00      0.00;
   4180      0.0       6.06      0.0       0.0       0.982     100       1         43.94     0.0       0.00      0.00      0.00      0.00      0.00      0.00      0.00      0.00      0.00      0.00      0.00;
   909       55.0      -9.93     48.0      -42.0     0.972     100       1         55.0      0.0       0.00      0.00      0.00      0.00      0.00      0.00      0.00      0.00      0.00      0.00      0.00;
   911       110.0     15.32     68.5      -15.5     0.993     100       1         110.0     0.0       0.00      0.00      0.00      0.00      0.00      0.00      0.00      0.00      0.00      0.00      0.00;
   913       300.0     -13.6     164.5     -61.0     0.969     100       1         330.0     0.0       0.00      0.00      0.00      0.00      0.00      0.00      0.00      0.00      0.00      0.00      0.00;
   8612      23.64     4.35      29.37     -21.2     0.994     100       1         36.08     0.0       0.00      0.00      0.00      0.00      0.00      0.00      0.00      0.00      0.00      0.00      0.00;
   8616      39.36     4.01      26.7      -19.3     0.993     100       1         39.36     0.0       0.00      0.00      0.00      0.00      0.00      0.00      0.00      0.00      0.00      0.00      0.00;
   9026      0.0       1.35      0.0       0.0       1.002     100       1         51.0      0.0       0.00      0.00      0.00      0.00      0.00      0.00      0.00      0.00      0.00      0.00      0.00;
   9026      0.0       1.35      0.0       0.0       1.002     100       1         51.0      0.0       0.00      0.00      0.00      0.00      0.00      0.00      0.00      0.00      0.00      0.00      0.00;
   9026      0.0       1.35      0.0       0.0       1.002     100       1         51.0      0.0       0.00      0.00      0.00      0.00      0.00      0.00      0.00      0.00      0.00      0.00      0.00;
   9026      0.0       1.35      0.0       0.0       1.002     100       1         51.0      0.0       0.00      0.00      0.00      0.00      0.00      0.00      0.00      0.00      0.00      0.00      0.00;
   9026      0.0       1.35      0.0       0.0       1.002     100       1         36.0      0.0       0.00      0.00      0.00      0.00      0.00      0.00      0.00      0.00      0.00      0.00      0.00;
   8609      15.3      33.39     51.24     -51.2     1.016     100       1         18.35     0.0       0.00      0.00      0.00      0.00      0.00      0.00      0.00      0.00      0.00      0.00      0.00;
   8609      18.35     33.39     51.24     -51.2     1.016     100       1         18.35     0.0       0.00      0.00      0.00      0.00      0.00      0.00      0.00      0.00      0.00      0.00      0.00;
   8609      0.0       33.39     51.24     -51.2     1.016     100       1         18.35     0.0       0.00      0.00      0.00      0.00      0.00      0.00      0.00      0.00      0.00      0.00      0.00;
   8609      18.35     33.39     51.24     -51.2     1.016     100       1         18.35     0.0       0.00      0.00      0.00      0.00      0.00      0.00      0.00      0.00      0.00      0.00      0.00;
   5460      0.0       21.27     0.0       0.0       1.014     100       1         20.37     0.0       0.00      0.00      0.00      0.00      0.00      0.00      0.00      0.00      0.00      0.00      0.00;
   5460      0.0       21.27     0.0       0.0       1.014     100       1         20.37     0.0       0.00      0.00      0.00      0.00      0.00      0.00      0.00      0.00      0.00      0.00      0.00;
   5460      0.0       21.27     0.0       0.0       1.014     100       1         20.37     0.0       0.00      0.00      0.00      0.00      0.00      0.00      0.00      0.00      0.00      0.00      0.00;
   5460      0.0       21.27     0.0       0.0       1.014     100       1         20.37     0.0       0.00      0.00      0.00      0.00      0.00      0.00      0.00      0.00      0.00      0.00      0.00;
   5460      0.0       21.27     0.0       0.0       1.014     100       1         20.37     0.0       0.00      0.00      0.00      0.00      0.00      0.00      0.00      0.00      0.00      0.00      0.00;
   5460      0.0       21.27     0.0       0.0       1.014     100       1         20.37     0.0       0.00      0.00      0.00      0.00      0.00      0.00      0.00      0.00      0.00      0.00      0.00;
   5460      0.0       21.27     0.0       0.0       1.014     100       1         20.37     0.0       0.00      0.00      0.00      0.00      0.00      0.00      0.00      0.00      0.00      0.00      0.00;
   5460      0.0       21.27     0.0       0.0       1.014     100       1         20.37     0.0       0.00      0.00      0.00      0.00      0.00      0.00      0.00      0.00      0.00      0.00      0.00;
   5646      490.0     63.06     146.0     -181.0    0.99      100       1         518.8     0.0       0.00      0.00      0.00      0.00      0.00      0.00      0.00      0.00      0.00      0.00      0.00;
   5647      0.0       64.07     109.0     -47.0     1.018     100       1         337.6     0.0       0.00      0.00      0.00      0.00      0.00      0.00      0.00      0.00      0.00      0.00      0.00;
   5648      0.0       64.07     109.0     -47.0     1.018     100       1         337.6     0.0       0.00      0.00      0.00      0.00      0.00      0.00      0.00      0.00      0.00      0.00      0.00;
   5650      0.0       59.17     0.0       0.0       1.016     100       1         178.21    0.0       0.00      0.00      0.00      0.00      0.00      0.00      0.00      0.00      0.00      0.00      0.00;
   3962      0.0       -23.1     240.0     -140.0    1.007     100       1         250.0     0.0       0.00      0.00      0.00      0.00      0.00      0.00      0.00      0.00      0.00      0.00      0.00;
   3962      0.0       -23.1     240.0     -140.0    1.007     100       1         250.0     0.0       0.00      0.00      0.00      0.00      0.00      0.00      0.00      0.00      0.00      0.00      0.00;
   3962      0.0       -23.1     240.0     -140.0    1.007     100       1         250.0     0.0       0.00      0.00      0.00      0.00      0.00      0.00      0.00      0.00      0.00      0.00      0.00;
   3963      0.0       -35.7     180.0     -110.0    1.002     100       1         520.0     0.0       0.00      0.00      0.00      0.00      0.00      0.00      0.00      0.00      0.00      0.00      0.00;
   6447      0.0       21.73     0.0       0.0       1.015     100       1         41.86     0.0       0.00      0.00      0.00      0.00      0.00      0.00      0.00      0.00      0.00      0.00      0.00;
   6447      0.0       21.73     0.0       0.0       1.015     100       1         33.5      0.0       0.00      0.00      0.00      0.00      0.00      0.00      0.00      0.00      0.00      0.00      0.00;
   6448      0.0       21.73     0.0       0.0       1.015     100       1         41.86     0.0       0.00      0.00      0.00      0.00      0.00      0.00      0.00      0.00      0.00      0.00      0.00;
   6448      0.0       21.73     0.0       0.0       1.015     100       1         41.86     0.0       0.00      0.00      0.00      0.00      0.00      0.00      0.00      0.00      0.00      0.00      0.00;
   404       0.0       -24.1     0.0       0.0       0.967     100       1         280.0     0.0       0.00      0.00      0.00      0.00      0.00      0.00      0.00      0.00      0.00      0.00      0.00;
   404       0.0       -24.1     0.0       0.0       0.967     100       1         280.0     0.0       0.00      0.00      0.00      0.00      0.00      0.00      0.00      0.00      0.00      0.00      0.00;
   405       0.0       -28.7     0.0       0.0       0.991     100       1         140.0     0.0       0.00      0.00      0.00      0.00      0.00      0.00      0.00      0.00      0.00      0.00      0.00;
   405       0.0       -28.7     0.0       0.0       0.991     100       1         140.0     0.0       0.00      0.00      0.00      0.00      0.00      0.00      0.00      0.00      0.00      0.00      0.00;
   406       0.0       -14.1     0.0       0.0       0.999     100       1         140.0     0.0       0.00      0.00      0.00      0.00      0.00      0.00      0.00      0.00      0.00      0.00      0.00;
   406       0.0       -14.1     0.0       0.0       0.999     100       1         140.0     0.0       0.00      0.00      0.00      0.00      0.00      0.00      0.00      0.00      0.00      0.00      0.00;
   8610      18.35     38.33     51.24     -16.0     1.037     100       1         18.35     0.0       0.00      0.00      0.00      0.00      0.00      0.00      0.00      0.00      0.00      0.00      0.00;
   8610      8.95      38.33     51.24     -16.0     1.037     100       1         18.35     0.0       0.00      0.00      0.00      0.00      0.00      0.00      0.00      0.00      0.00      0.00      0.00;
   8610      18.35     38.33     51.24     -16.0     1.037     100       1         18.35     0.0       0.00      0.00      0.00      0.00      0.00      0.00      0.00      0.00      0.00      0.00      0.00;
   8610      18.35     38.33     51.24     -16.0     1.037     100       1         18.35     0.0       0.00      0.00      0.00      0.00      0.00      0.00      0.00      0.00      0.00      0.00      0.00;
   5658      0.0       43.14     0.0       0.0       0.983     100       1         360.0     0.0       0.00      0.00      0.00      0.00      0.00      0.00      0.00      0.00      0.00      0.00      0.00;
   5658      0.0       43.14     0.0       0.0       0.983     100       1         360.0     0.0       0.00      0.00      0.00      0.00      0.00      0.00      0.00      0.00      0.00      0.00      0.00;
   5187      0.0       0.23      0.0       0.0       1.012     100       1         12.48     0.0       0.00      0.00      0.00      0.00      0.00      0.00      0.00      0.00      0.00      0.00      0.00;
   5187      0.0       0.23      0.0       0.0       1.012     100       1         13.92     0.0       0.00      0.00      0.00      0.00      0.00      0.00      0.00      0.00      0.00      0.00      0.00;
   5187      0.0       0.23      0.0       0.0       1.012     100       1         12.48     0.0       0.00      0.00      0.00      0.00      0.00      0.00      0.00      0.00      0.00      0.00      0.00;
   5187      0.0       0.23      0.0       0.0       1.012     100       1         13.92     0.0       0.00      0.00      0.00      0.00      0.00      0.00      0.00      0.00      0.00      0.00      0.00;
   5187      0.0       0.23      0.0       0.0       1.012     100       1         12.48     0.0       0.00      0.00      0.00      0.00      0.00      0.00      0.00      0.00      0.00      0.00      0.00;
   5187      0.0       0.23      0.0       0.0       1.012     100       1         14.88     0.0       0.00      0.00      0.00      0.00      0.00      0.00      0.00      0.00      0.00      0.00      0.00;
   5187      0.0       0.23      0.0       0.0       1.012     100       1         13.92     0.0       0.00      0.00      0.00      0.00      0.00      0.00      0.00      0.00      0.00      0.00      0.00;
   5609      0.0       43.93     0.0       0.0       0.987     100       1         360.14    0.0       0.00      0.00      0.00      0.00      0.00      0.00      0.00      0.00      0.00      0.00      0.00;
   3740      0.0       12.16     0.0       0.0       0.994     100       1         70.58     0.0       0.00      0.00      0.00      0.00      0.00      0.00      0.00      0.00      0.00      0.00      0.00;
   3740      0.0       12.16     0.0       0.0       0.994     100       1         69.86     0.0       0.00      0.00      0.00      0.00      0.00      0.00      0.00      0.00      0.00      0.00      0.00;
   998       300.0     -79.9     160.0     -115.0    0.997     100       1         345.0     0.0       0.00      0.00      0.00      0.00      0.00      0.00      0.00      0.00      0.00      0.00      0.00;
   5642      0.0       19.89     0.0       0.0       1.016     100       1         56.3      0.0       0.00      0.00      0.00      0.00      0.00      0.00      0.00      0.00      0.00      0.00      0.00;
   5642      0.0       19.89     0.0       0.0       1.016     100       1         365.32    0.0       0.00      0.00      0.00      0.00      0.00      0.00      0.00      0.00      0.00      0.00      0.00;
   5659      0.0       21.57     0.0       0.0       0.983     100       1         365.0     0.0       0.00      0.00      0.00      0.00      0.00      0.00      0.00      0.00      0.00      0.00      0.00;
   5178      0.0       0.65      0.0       0.0       1.012     100       1         52.38     0.0       0.00      0.00      0.00      0.00      0.00      0.00      0.00      0.00      0.00      0.00      0.00;
   5178      0.0       0.65      0.0       0.0       1.012     100       1         52.38     0.0       0.00      0.00      0.00      0.00      0.00      0.00      0.00      0.00      0.00      0.00      0.00;
   5178      0.0       0.65      0.0       0.0       1.012     100       1         52.38     0.0       0.00      0.00      0.00      0.00      0.00      0.00      0.00      0.00      0.00      0.00      0.00;
   5178      0.0       0.65      0.0       0.0       1.012     100       1         43.6      0.0       0.00      0.00      0.00      0.00      0.00      0.00      0.00      0.00      0.00      0.00      0.00;
   6314      0.0       18.24     0.0       0.0       1.008     100       1         16.5      0.0       0.00      0.00      0.00      0.00      0.00      0.00      0.00      0.00      0.00      0.00      0.00;
   6314      0.0       18.24     0.0       0.0       1.008     100       1         33.0      0.0       0.00      0.00      0.00      0.00      0.00      0.00      0.00      0.00      0.00      0.00      0.00;
   6314      0.0       18.24     0.0       0.0       1.008     100       1         49.5      0.0       0.00      0.00      0.00      0.00      0.00      0.00      0.00      0.00      0.00      0.00      0.00;
   6314      0.0       18.24     0.0       0.0       1.008     100       1         66.0      0.0       0.00      0.00      0.00      0.00      0.00      0.00      0.00      0.00      0.00      0.00      0.00;
   6314      0.0       18.24     0.0       0.0       1.008     100       1         82.5      0.0       0.00      0.00      0.00      0.00      0.00      0.00      0.00      0.00      0.00      0.00      0.00;
   6314      0.0       18.24     0.0       0.0       1.008     100       1         99.0      0.0       0.00      0.00      0.00      0.00      0.00      0.00      0.00      0.00      0.00      0.00      0.00;
   6314      0.0       18.24     0.0       0.0       1.008     100       1         115.5     0.0       0.00      0.00      0.00      0.00      0.00      0.00      0.00      0.00      0.00      0.00      0.00;
   6314      0.0       18.24     0.0       0.0       1.008     100       1         132.0     0.0       0.00      0.00      0.00      0.00      0.00      0.00      0.00      0.00      0.00      0.00      0.00;
   5700      0.0       -24.4     0.0       0.0       1.036     100       1         1593.2    0.0       0.00      0.00      0.00      0.00      0.00      0.00      0.00      0.00      0.00      0.00      0.00;
   5700      0.0       -24.4     0.0       0.0       1.036     100       1         1060.0    0.0       0.00      0.00      0.00      0.00      0.00      0.00      0.00      0.00      0.00      0.00      0.00;
   5700      0.0       -24.4     0.0       0.0       1.036     100       1         1060.0    0.0       0.00      0.00      0.00      0.00      0.00      0.00      0.00      0.00      0.00      0.00      0.00;
   5800      0.0       -12.2     0.0       0.0       1.036     100       1         1060.0    0.0       0.00      0.00      0.00      0.00      0.00      0.00      0.00      0.00      0.00      0.00      0.00;
   5240      0.0       -0.03     0.0       0.0       0.995     100       1         13.28     0.0       0.00      0.00      0.00      0.00      0.00      0.00      0.00      0.00      0.00      0.00      0.00;
   5240      0.0       -0.03     0.0       0.0       0.995     100       1         13.28     0.0       0.00      0.00      0.00      0.00      0.00      0.00      0.00      0.00      0.00      0.00      0.00;
   5240      0.0       -0.03     0.0       0.0       0.995     100       1         13.28     0.0       0.00      0.00      0.00      0.00      0.00      0.00      0.00      0.00      0.00      0.00      0.00;
   5240      0.0       -0.03     0.0       0.0       0.995     100       1         13.28     0.0       0.00      0.00      0.00      0.00      0.00      0.00      0.00      0.00      0.00      0.00      0.00;
   5242      0.0       -0.05     0.0       0.0       0.995     100       1         9.57      0.0       0.00      0.00      0.00      0.00      0.00      0.00      0.00      0.00      0.00      0.00      0.00;
   5242      0.0       -0.05     0.0       0.0       0.995     100       1         9.57      0.0       0.00      0.00      0.00      0.00      0.00      0.00      0.00      0.00      0.00      0.00      0.00;
   5242      0.0       -0.05     0.0       0.0       0.995     100       1         9.57      0.0       0.00      0.00      0.00      0.00      0.00      0.00      0.00      0.00      0.00      0.00      0.00;
   5242      0.0       -0.05     0.0       0.0       0.995     100       1         8.25      0.0       0.00      0.00      0.00      0.00      0.00      0.00      0.00      0.00      0.00      0.00      0.00;
   5242      0.0       -0.05     0.0       0.0       0.995     100       1         9.57      0.0       0.00      0.00      0.00      0.00      0.00      0.00      0.00      0.00      0.00      0.00      0.00;
   5242      0.0       -0.05     0.0       0.0       0.995     100       1         8.25      0.0       0.00      0.00      0.00      0.00      0.00      0.00      0.00      0.00      0.00      0.00      0.00;
   6104      0.0       -1.32     0.0       0.0       1.013     100       1         9.34      0.0       0.00      0.00      0.00      0.00      0.00      0.00      0.00      0.00      0.00      0.00      0.00;
   6104      0.0       -1.32     0.0       0.0       1.013     100       1         9.34      0.0       0.00      0.00      0.00      0.00      0.00      0.00      0.00      0.00      0.00      0.00      0.00;
   6104      0.0       -1.32     0.0       0.0       1.013     100       1         9.34      0.0       0.00      0.00      0.00      0.00      0.00      0.00      0.00      0.00      0.00      0.00      0.00;
   8421      0.0       -2.55     0.0       0.0       1.013     100       1         9.36      0.0       0.00      0.00      0.00      0.00      0.00      0.00      0.00      0.00      0.00      0.00      0.00;
   8421      0.0       -2.55     0.0       0.0       1.013     100       1         9.36      0.0       0.00      0.00      0.00      0.00      0.00      0.00      0.00      0.00      0.00      0.00      0.00;
   8421      0.0       -2.55     0.0       0.0       1.013     100       1         9.36      0.0       0.00      0.00      0.00      0.00      0.00      0.00      0.00      0.00      0.00      0.00      0.00;
   8421      0.0       -2.55     0.0       0.0       1.013     100       1         9.36      0.0       0.00      0.00      0.00      0.00      0.00      0.00      0.00      0.00      0.00      0.00      0.00;
   45528     0.0       -2.55     0.0       0.0       1.013     100       1         9.33      0.0       0.00      0.00      0.00      0.00      0.00      0.00      0.00      0.00      0.00      0.00      0.00;
   45528     0.0       -2.55     0.0       0.0       1.013     100       1         9.33      0.0       0.00      0.00      0.00      0.00      0.00      0.00      0.00      0.00      0.00      0.00      0.00;
   45528     0.0       -2.55     0.0       0.0       1.013     100       1         9.33      0.0       0.00      0.00      0.00      0.00      0.00      0.00      0.00      0.00      0.00      0.00      0.00;
   45528     0.0       -2.55     0.0       0.0       1.013     100       1         9.33      0.0       0.00      0.00      0.00      0.00      0.00      0.00      0.00      0.00      0.00      0.00      0.00;
   45528     0.0       -2.55     0.0       0.0       1.013     100       1         9.33      0.0       0.00      0.00      0.00      0.00      0.00      0.00      0.00      0.00      0.00      0.00      0.00;
   45528     0.0       -2.55     0.0       0.0       1.013     100       1         9.33      0.0       0.00      0.00      0.00      0.00      0.00      0.00      0.00      0.00      0.00      0.00      0.00;
   1152      0.0       -2.55     0.0       0.0       1.0       100       1         248.57    0.0       0.00      0.00      0.00      0.00      0.00      0.00      0.00      0.00      0.00      0.00      0.00;
   3974      0.0       -15.2     0.0       0.0       0.997     100       1         180.0     0.0       0.00      0.00      0.00      0.00      0.00      0.00      0.00      0.00      0.00      0.00      0.00;
   3974      0.0       -15.2     0.0       0.0       0.997     100       1         225.0     0.0       0.00      0.00      0.00      0.00      0.00      0.00      0.00      0.00      0.00      0.00      0.00;
   3974      0.0       -15.2     0.0       0.0       0.997     100       1         270.0     0.0       0.00      0.00      0.00      0.00      0.00      0.00      0.00      0.00      0.00      0.00      0.00;
   3974      0.0       -15.2     0.0       0.0       0.997     100       1         315.0     0.0       0.00      0.00      0.00      0.00      0.00      0.00      0.00      0.00      0.00      0.00      0.00;
   3974      0.0       -15.2     0.0       0.0       0.997     100       1         45.0      0.0       0.00      0.00      0.00      0.00      0.00      0.00      0.00      0.00      0.00      0.00      0.00;
   3974      0.0       -15.2     0.0       0.0       0.997     100       1         90.0      0.0       0.00      0.00      0.00      0.00      0.00      0.00      0.00      0.00      0.00      0.00      0.00;
   3974      0.0       -15.2     0.0       0.0       0.997     100       1         135.0     0.0       0.00      0.00      0.00      0.00      0.00      0.00      0.00      0.00      0.00      0.00      0.00;
   6021      0.0       0.0       0.0       0.0       0.992     100       1         22.43     0.0       0.00      0.00      0.00      0.00      0.00      0.00      0.00      0.00      0.00      0.00      0.00;
   6021      0.0       0.0       0.0       0.0       0.992     100       1         44.85     0.0       0.00      0.00      0.00      0.00      0.00      0.00      0.00      0.00      0.00      0.00      0.00;
   6021      0.0       0.0       0.0       0.0       0.992     100       1         67.28     0.0       0.00      0.00      0.00      0.00      0.00      0.00      0.00      0.00      0.00      0.00      0.00;
   6022      0.0       0.0       0.0       0.0       0.992     100       1         89.71     0.0       0.00      0.00      0.00      0.00      0.00      0.00      0.00      0.00      0.00      0.00      0.00;
   6022      0.0       0.0       0.0       0.0       0.992     100       1         112.14    0.0       0.00      0.00      0.00      0.00      0.00      0.00      0.00      0.00      0.00      0.00      0.00;
   6022      0.0       0.0       0.0       0.0       0.992     100       1         134.56    0.0       0.00      0.00      0.00      0.00      0.00      0.00      0.00      0.00      0.00      0.00      0.00;
   6023      0.0       0.0       0.0       0.0       0.992     100       1         156.99    0.0       0.00      0.00      0.00      0.00      0.00      0.00      0.00      0.00      0.00      0.00      0.00;
   6023      0.0       0.0       0.0       0.0       0.992     100       1         179.42    0.0       0.00      0.00      0.00      0.00      0.00      0.00      0.00      0.00      0.00      0.00      0.00;
   6023      0.0       0.0       0.0       0.0       0.992     100       1         201.84    0.0       0.00      0.00      0.00      0.00      0.00      0.00      0.00      0.00      0.00      0.00      0.00;
   6024      0.0       0.0       0.0       0.0       0.992     100       1         224.27    0.0       0.00      0.00      0.00      0.00      0.00      0.00      0.00      0.00      0.00      0.00      0.00;
   6024      0.0       0.0       0.0       0.0       0.992     100       1         246.7     0.0       0.00      0.00      0.00      0.00      0.00      0.00      0.00      0.00      0.00      0.00      0.00;
   6024      0.0       0.0       0.0       0.0       0.992     100       1         269.12    0.0       0.00      0.00      0.00      0.00      0.00      0.00      0.00      0.00      0.00      0.00      0.00;
   6025      0.0       0.0       0.0       0.0       0.992     100       1         291.55    0.0       0.00      0.00      0.00      0.00      0.00      0.00      0.00      0.00      0.00      0.00      0.00;
   6025      0.0       0.0       0.0       0.0       0.992     100       1         313.98    0.0       0.00      0.00      0.00      0.00      0.00      0.00      0.00      0.00      0.00      0.00      0.00;
   6025      0.0       0.0       0.0       0.0       0.992     100       1         336.4     0.0       0.00      0.00      0.00      0.00      0.00      0.00      0.00      0.00      0.00      0.00      0.00;
   6026      0.0       0.0       0.0       0.0       0.992     100       1         358.83    0.0       0.00      0.00      0.00      0.00      0.00      0.00      0.00      0.00      0.00      0.00      0.00;
   6026      0.0       0.0       0.0       0.0       0.992     100       1         381.26    0.0       0.00      0.00      0.00      0.00      0.00      0.00      0.00      0.00      0.00      0.00      0.00;
   3524      0.0       -3.26     0.0       0.0       1.001     100       1         90.0      0.0       0.00      0.00      0.00      0.00      0.00      0.00      0.00      0.00      0.00      0.00      0.00;
   4300      0.0       -6.52     0.0       0.0       1.001     100       1         90.0      0.0       0.00      0.00      0.00      0.00      0.00      0.00      0.00      0.00      0.00      0.00      0.00;
   4300      0.0       -6.52     0.0       0.0       1.001     100       1         90.0      0.0       0.00      0.00      0.00      0.00      0.00      0.00      0.00      0.00      0.00      0.00      0.00;
   4301      0.0       -6.52     0.0       0.0       1.001     100       1         180.0     0.0       0.00      0.00      0.00      0.00      0.00      0.00      0.00      0.00      0.00      0.00      0.00;
   5188      0.0       0.41      0.0       0.0       1.012     100       1         6.24      0.0       0.00      0.00      0.00      0.00      0.00      0.00      0.00      0.00      0.00      0.00      0.00;
   5188      0.0       0.41      0.0       0.0       1.012     100       1         13.92     0.0       0.00      0.00      0.00      0.00      0.00      0.00      0.00      0.00      0.00      0.00      0.00;
   5188      0.0       0.41      0.0       0.0       1.012     100       1         12.48     0.0       0.00      0.00      0.00      0.00      0.00      0.00      0.00      0.00      0.00      0.00      0.00;
   5188      0.0       0.41      0.0       0.0       1.012     100       1         13.92     0.0       0.00      0.00      0.00      0.00      0.00      0.00      0.00      0.00      0.00      0.00      0.00;
   5188      0.0       0.41      0.0       0.0       1.012     100       1         4.8       0.0       0.00      0.00      0.00      0.00      0.00      0.00      0.00      0.00      0.00      0.00      0.00;
   5188      0.0       0.41      0.0       0.0       1.012     100       1         12.48     0.0       0.00      0.00      0.00      0.00      0.00      0.00      0.00      0.00      0.00      0.00      0.00;
   5188      0.0       0.41      0.0       0.0       1.012     100       1         12.48     0.0       0.00      0.00      0.00      0.00      0.00      0.00      0.00      0.00      0.00      0.00      0.00;
   5188      0.0       0.41      0.0       0.0       1.012     100       1         12.48     0.0       0.00      0.00      0.00      0.00      0.00      0.00      0.00      0.00      0.00      0.00      0.00;
   5188      0.0       0.41      0.0       0.0       1.012     100       1         13.92     0.0       0.00      0.00      0.00      0.00      0.00      0.00      0.00      0.00      0.00      0.00      0.00;
   5188      0.0       0.41      0.0       0.0       1.012     100       1         13.92     0.0       0.00      0.00      0.00      0.00      0.00      0.00      0.00      0.00      0.00      0.00      0.00;
   5188      0.0       0.41      0.0       0.0       1.012     100       1         12.48     0.0       0.00      0.00      0.00      0.00      0.00      0.00      0.00      0.00      0.00      0.00      0.00;
   5188      0.0       0.41      0.0       0.0       1.012     100       1         13.92     0.0       0.00      0.00      0.00      0.00      0.00      0.00      0.00      0.00      0.00      0.00      0.00;
   5219      0.0       0.0       0.0       0.0       0.991     100       1         58.27     0.0       0.00      0.00      0.00      0.00      0.00      0.00      0.00      0.00      0.00      0.00      0.00;
...